*KEYWORD
*DATABASE_HISTORY_NODE
$HMNAME OUTPUTBLOCKS       1moving_node_plate                                                       
$       ID        ID        ID        ID        ID        ID        ID        ID
     99593
*NODE
$    NID               X               Y               Z      TC      RC
   94292 2.9999999669486  69.25000006435 3.1999998420679                
   94294 2.9999999656912 69.250000094549 2.9999998420679                
   94296 2.9999999644338 69.250000124748 2.7999998420679                
   94298 2.9999999631763 69.250000154947 2.5999998420679                
   94300 2.9999999619189 69.250000185146 2.3999998420679                
   94302 2.9999999606615 69.250000215346 2.1999998420679                
   94304 2.9999999594041 69.250000245545 1.9999998420679                
   94306 2.9999999581467 69.250000275744 1.7999998420679                
   94308 2.9999999568893 69.250000305943 1.5999998420679                
   94310 2.9999999556318 69.250000336142 1.3999998420679                
   94312 2.9999999543744 69.250000366342 1.1999998420679                
   94314 2.7999999543744 69.250000367922 1.1999998433254                
   94316 2.5999999543744 69.250000369503 1.1999998445828                
   94318 2.3999999543744 69.250000371083 1.1999998458402                
   94320 2.1999999543744 69.250000372664 1.1999998470976                
   94322 1.9999999543744 69.250000374244  1.199999848355                
   94324 1.7999999543744 69.250000375825 1.1999998496124                
   94326 1.5999999543744 69.250000377406 1.1999998508699                
   94328 1.3999999543744 69.250000378986 1.1999998521273                
   94330 1.1999999543744 69.250000380567 1.1999998533847                
$ ... 26180 like lines cut
*ELEMENT_SOLID
$    EID     PID
$     N1      N2      N3      N4      N5      N6      N7      N8
   85578    1002
  101429  101450  101434  101427  110035  110036  110037  110038
   85579    1002
  101431  101448  101450  101429  110039  110040  110036  110035
   85580    1002
  101334  101332  101448  101431  110041  110042  110040  110039
   85581    1002
  101443  101327  100357  100359  110043  110044  110045  110046
   85582    1002
  101436  101325  101327  101443  110047  110048  110044  110043
   85583    1002
  101439  101443  100359  100361  110049  110043  110046  110050
   85584    1002
  101434  101436  101443  101439  110037  110047  110043  110049
   85585    1002
  101425  101439  100361  100363  110051  110049  110050  110052
   85586    1002
  101427  101434  101439  101425  110038  110037  110049  110051
   85587    1002
  101386  101384  101404  101420  110053  110054  110055  110056
$ ... 25540 like lines cut
*PART
$HWCOLOR COMPS    1001      23
$NAME                                                                           
base                                                                            
$      PID     SECID       MID     EOSID      HGID      GRAV    ADPOPT      TMID
      1001         3         3                                                  
$HWCOLOR COMPS    1002      11
$NAME                                                                           
crosshead                                                                       
$      PID     SECID       MID     EOSID      HGID      GRAV    ADPOPT      TMID
      1002         3         3                                                  
*MAT_RIGID
$HMNAME MATERIAL         3acciaio_matrigid_y-free                               
$HWCOLOR MATERIAL         3      49                                             
$      MID       RHO         E        PR         N    COUPLE         M     ALIAS
         37.8000E-06     210.0       0.3                                        
$      CMO      CON1      CON2
       1.0         6         7
$      LCO
          
*MAT_RIGID
$HMNAME MATERIAL         4acciaio_matrigid_fixed                                
$HWCOLOR MATERIAL         4      49                                             
$      MID       RHO         E        PR         N    COUPLE         M     ALIAS
         47.8000E-06     210.0       0.3                                        
$      CMO      CON1      CON2
       1.0         7         7
$      LCO
          
*SECTION_SHELL
$HMNAME PROPERTIES         1shell_section_2mm                                                               
$    SECID    ELFORM      SHRF       NIP     PROPT        QR     ICOMP     SETYP
         1                             0                                        
$       T1        T2        T3        T4      NLOC     MAREA      IDOF    EDGSET
       2.0       2.0       2.0       2.0                                        
*SECTION_SOLID
$HMNAME PROPERTIES         3solid_section_piastra                                                           
$    SECID    ELFORM
         3         1
*BOUNDARY_PRESCRIBED_MOTION_RIGID
$HMNAME LOADCOLS       3PrcrbDsp_Rigid                                                          
$HWCOLOR LOADCOLS       3      59                                               
$   TYPEID       DOF       VAD      LCID        SF       VID     DEATH     BIRTH
      1001         2         2         2                                        
*BOUNDARY_PRESCRIBED_MOTION_RIGID
$HMNAME LOADCOLS       2BoundSPC.1                                                              
$HWCOLOR LOADCOLS       2      59                                               
$   TYPEID       DOF       VAD      LCID        SF       VID     DEATH     BIRTH
      1002         2         0         3                                        
$$
$$ Sets Defined In HyperMesh
$$
*SET_NODE_LIST
$HMSET
$HMNAME SETS       1NSET_base                                                               
$      SID       DA1       DA2       DA3       DA4SOLVER    
         1                                        MECH      
     94292     94294     94296     94298     94300     94302     94304     94306
     94308     94310     94312     94314     94316     94318     94320     94322
     94324     94326     94328     94330     94333     94335     94337     94339
     94341     94343     94345     94347     94349     94351     94353     94355
     94357     94359     94361     94363     94365     94367     94369     94372
     94374     94376     94378     94382     94384     94386     94388     94391
     94393     94395     94397     94400     94402     94404     94406     94409
     94412     94417     94421     94426     94428     94431     94435     94440
     94442     94447     94451     94456     94458     94460     94462     94465
     94468     94473     94477     94482     94484     94487     94491     94496
     94498     94503     94507     94512     94514     94516     94518     94521
     94523     94525     94527     94530     94533     94538     94542     94547
     94549     94552     94556     94561     94563     94568     94572     94577
     94579     94581     94583     94586     94589     94594     94598     94603
     94605     94608     94612     94617     94619     94624     94628     99593
*SET_NODE_LIST
$HMSET
$HMNAME SETS       2NSET_crosshead                                                          
$      SID       DA1       DA2       DA3       DA4SOLVER    
         2                                        MECH      
     94632     94634     94636     94638     94640     94642     94644     94646
     94648     94650     94652     94654     94656     94658     94660     94662
     94664     94666     94668     94670     94672     94674     94676     94678
     94680     94682     94684     94686     94688     94690     94692     94694
     94696     94698     94700     94702     94704     94706     94708     94710
     94712     94714     94716     94718     94720     94722     94724     94726
     94728     94730     94732     94734     94736     94738     94740     94742
     94744     94746     94748     94750     94752     94754     94756     94758
     94760     94762     94764     94766     94768     94770     94772     94774
     94776     94778     94780     94782     94784     94786     94788     94790
     94792     94794     94796     94798     94800     94802     94804     94806
     94808     94810     94812     94814     94816     94818     94820     94822
     94824     94826     94828     94830     94832     94834     94836     94838
     94840     94842     94844     94846     94848     94850     94852     94854
     94856     94858     94860     94862     94864     94866     94868     94870
     94872     94874     94876     94878     94880     94882     94884     94886
     94888     94890     94892     94894     94896     94898     94900     94902
     94904     94906     94908     94910     94912     94914     94916     94918
     94920     94922     94924     94926     94928     94930     94932     94934
     94936     94938     94940     94942     94944     94946     94948     94950
$ ... 190 like lines cut
$$
$$ Sets Defined In HyperMesh
$$
*SET_PART_LIST
$HMSET
$HMNAME SETS       8parti_contatto_machine                                                  
$      SID       DA1       DA2       DA3       DA4SOLVER    
         8                                        MECH      
      1001      1002
*END
$$<?xml version="1.0" encoding="utf-8"?>
$$<Altair_XML_Export>
$$<UDM xmlns:SOAP-ENV="http://schemas.xmlsoap.org/soap/envelope/" xmlns:SOAP-ENC="http://schemas.xmlsoap.org/soap/encoding/" xmlns:xsi="http://www.w3.org/2001/XMLSchema-instance" xmlns:xsd="http://www.w3.org/2001/XMLSchema" xmlns:udmcfg="http://schemas.altair.com/AltairUDMRuntimeConfig" xmlns:udmxml="http://schemas.altair.com/AltairUDM" xmlns:importrules="http://schemas.altair.com/hsm/importrules"
$$</Altair_XML_Export>
