*KEYWORD
*DATABASE_HISTORY_NODE
$HMNAME OUTPUTBLOCKS       2glass_node                                                              
$       ID        ID        ID        ID        ID        ID        ID        ID
     50105
*NODE
$    NID               X               Y               Z      TC      RC
   49290 2.8500759356699 66.375276948582 -2.86849478E-04                
   49334 7.593566988E-05 66.375276948582 -2.850286849478                
   49335 0.2033926356699 66.375276948582 -2.843026849478                
   49336 0.4056732356699 66.375276948582 -2.821276849478                
   49337 0.6058870356699 66.375276948582 -2.785156849478                
   49338 0.8030137356699 66.375276948582 -2.734836849478                
   49339 0.9960488356699 66.375276948582 -2.670596849478                
   49340 1.1840089356699 66.375276948582 -2.592736849478                
   49341 1.3659359356699 66.375276948582 -2.501676849478                
   49342 1.5409019356699 66.375276948582 -2.397856849478                
   49343 1.7080169356699 66.375276948582 -2.281826849478                
   49344 1.8664289356699 66.375276948582 -2.154176849478                
   49345 2.0153299356699 66.375276948582 -2.015536849478                
   49346 2.1539619356699 66.375276948582 -1.866636849478                
   49347 2.2816189356699 66.375276948582 -1.708226849478                
   49348 2.3976489356699 66.375276948582 -1.541116849478                
   49349 2.5014609356699 66.375276948582 -1.366146849478                
   49350 2.5925269356699 66.375276948582 -1.184216849478                
   49351 2.6703829356699 66.375276948582 -0.996259849478                
   49352 2.7346309356699 66.375276948582 -0.803224849478                
$ ... 59814 like lines cut
*ELEMENT_SHELL
$    EID     PID      N1      N2      N3      N4
 3343260    1007 1157814 1157812 1157839 1157839
 3343309    1007 1157858 1157863 1157890 1157890
 3343363    1007 1157920 1157899 1157934 1157934
 3343407    1007 1157937 1157957 1157980 1157980
 3343578    1007 1158089 1158127 1158137 1158137
 3343615    1007 1158165 1158139 1158189 1158189
 3343736    1007 1158275 1158280 1158323 1158323
 3343761    1007 1158312 1158265 1158317 1158317
 3343967    1007 1158451 1158504 1158520 1158520
 3343968    1007 1158510 1158458 1158521 1158521
 3343999    1007 1158542 1158517 1158575 1158575
 3344026    1007 1158552 1158574 1157738 1157738
 3344135    1007 1158640 1158678 1158691 1158691
 3344192    1007 1158737 1158702 1158749 1158749
 3344199    1007 1158742 1158708 1158758 1158758
 3344276    1007 1158791 1158827 1158835 1158835
 3344438    1007 1158943 1158982 1158986 1158986
 3344500    1007 1159040 1159012 1159054 1159054
 3344612    1007 1159118 1159150 1159165 1159165
 3344618    1007 1159157 1159116 1159164 1159164
$ ... 14 like lines cut
*ELEMENT_SHELL
$    EID     PID      N1      N2      N3      N4
  106118    1007   50147   50148   50168   50158
  106119    1007   50158   50168   50169   50159
  106120    1007   50159   50169   50170   50160
  106121    1007   50160   50170   50171   50161
  106122    1007   50161   50171   50172   50162
  106123    1007   50162   50172   50173   50163
  106124    1007   50163   50173   50174   50164
  106125    1007   50164   50174   50175   50165
  106126    1007   50165   50175   50176   50166
  106127    1007   50166   50176   50177   50167
  106128    1007   50167   50177   50114   50115
  106129    1007   50148   50149   50178   50168
  106130    1007   50168   50178   50179   50169
  106131    1007   50169   50179   50180   50170
  106132    1007   50170   50180   50181   50171
  106133    1007   50171   50181   50182   50172
  106134    1007   50172   50182   50183   50173
  106135    1007   50173   50183   50184   50174
  106136    1007   50174   50184   50185   50175
  106137    1007   50175   50185   50186   50176
$ ... 59795 like lines cut
*PART
$HWCOLOR COMPS    1007      35
$NAME                                                                           
phial_full_shell                                                                
$      PID     SECID       MID     EOSID      HGID      GRAV    ADPOPT      TMID
      1007         4         5                                                  
*MAT_PIECEWISE_LINEAR_PLASTICITY
$HMNAME MATERIAL         2glass                                                 
$HWCOLOR MATERIAL         2      59                                             
$      MID       RHO         E        PR      SIGY      ETAN      FAIL      TDEL
         22.6000E-06      70.0              1000.0                              
$        C         P      LCSS      LCSR        VP       LCF
                                                            
$     EPS1      EPS2      EPS3      EPS4      EPS5      EPS6      EPS7      EPS8
                                                                                
$      ES1       ES2       ES3       ES4       ES5       ES6       ES7       ES8
                                                                                
$*MAT_GLASS
$$HMNAME MATERIAL         5glass_shell                                           
$$HWCOLOR MATERIAL         5       6                                             
$$      MID       RHO         E        PR                          IMOD      ILAW
$         52.6000E-06      70.0      0.23                                     0.0
$$     FMOD        FT        FC        AT        BT        AC        BC     FTSCL
$       0.0     0.045       1.0                                               1.0
$$    SFSTI     SFSTR      CRIN     ECRCL     NCYCR      NIPF
$      0.01      0.01       0.0       0.0      50.0       5.0
$$    EPSCR    ENGCRT    RADCRT    RATENL    RFILTF    FRACEN    CTRACK
$     0.005                           0.0       0.0                -6.0
*MAT_ELASTIC
$#     mid        ro         e        pr        da        db         k
         5  2.500E-6      70.0      0.23       0.0       0.0       0.0
*SECTION_SHELL
$HMNAME PROPERTIES         4shell_section_040mm                                                             
$    SECID    ELFORM      SHRF       NIP     PROPT        QR     ICOMP     SETYP
         4                             5                                        
$       T1        T2        T3        T4      NLOC     MAREA      IDOF    EDGSET
       0.4       0.4       0.4       0.4                                        
*SECTION_SOLID
$HMNAME PROPERTIES         2solid_section                                                                   
$    SECID    ELFORM
         2         2
$$
$$ Sets Defined In HyperMesh
$$
*SET_PART_LIST
$HMSET
$HMNAME SETS       7parti_contatto_sample                                                   
$      SID       DA1       DA2       DA3       DA4SOLVER    
         7                                        MECH      
      1007
*END
$$<?xml version="1.0" encoding="utf-8"?>
$$<Altair_XML_Export>
$$<UDM xmlns:SOAP-ENV="http://schemas.xmlsoap.org/soap/envelope/" xmlns:SOAP-ENC="http://schemas.xmlsoap.org/soap/encoding/" xmlns:xsi="http://www.w3.org/2001/XMLSchema-instance" xmlns:xsd="http://www.w3.org/2001/XMLSchema" xmlns:udmcfg="http://schemas.altair.com/AltairUDMRuntimeConfig" xmlns:udmxml="http://schemas.altair.com/AltairUDM" xmlns:importrules="http://schemas.altair.com/hsm/importrules"
$$</Altair_XML_Export>
